*Heading
 Uniform stress state in a rectangular body
** Job name: element_test_old Model name: modelTestInterface
** Generated by: Abaqus/CAE 2018.HF25
*Preprint, echo=NO, model=NO, history=NO, contact=NO
**
** PARTS
**
*Part, name="Rectangular Part"
*Node
      1,           0.,           0.
      2,          0.5,           0.
      3,           1.,           0.
      4,           0.,          0.5
      5,          0.5,          0.5
      6,           1.,          0.5
      7,           0.,           1.
      8,          0.5,           1.
      9,           1.,           1.
*Element, type=CPS4
1, 1, 2, 5, 4
2, 2, 3, 6, 5
3, 4, 5, 8, 7
4, 5, 6, 9, 8
*Nset, nset=_PickedSet2, internal, generate
 1,  9,  1
*Elset, elset=_PickedSet2, internal, generate
 1,  4,  1
*Nset, nset="Left Edge", generate
 1,  7,  3
*Elset, elset="Left Edge"
 1, 3
*Elset, elset="_Right Edge_S2", internal
 2, 4
*Surface, type=ELEMENT, name="Right Edge"
"_Right Edge_S2", S2
** Section: Elastic Section
*Solid Section, elset=_PickedSet2, material="Elastic Material"
,
*End Part
**  
**
** ASSEMBLY
**
*Assembly, name=Assembly
**  
*Instance, name="Rectangular Instance", part="Rectangular Part"
*End Instance
**  
*Nset, nset="Bottom Edge", instance="Rectangular Instance", generate
 1,  3,  1
*Elset, elset="Bottom Edge", instance="Rectangular Instance"
 1, 2
*Nset, nset=_PickedSet3, internal, instance="Rectangular Instance", generate
 1,  7,  3
*Elset, elset=_PickedSet3, internal, instance="Rectangular Instance"
 1, 3
*Nset, nset=_PickedSet4, internal, instance="Rectangular Instance", generate
 1,  3,  1
*Elset, elset=_PickedSet4, internal, instance="Rectangular Instance"
 1, 2
*Elset, elset="_Top Surface_S3", internal, instance="Rectangular Instance"
 3, 4
*Surface, type=ELEMENT, name="Top Surface"
"_Top Surface_S3", S3
*End Assembly
** 
** MATERIALS
** 
*Material, name="Elastic Material"
*Density
 0.0003,
*Elastic
70000., 0.3
** ----------------------------------------------------------------
** 
** STEP: Apply Force
** 
*Step, name="Apply Force", nlgeom=NO
Well, guess
*Static
1., 1., 1e-05, 1.
** 
** BOUNDARY CONDITIONS
** 
** Name: BC Bottom Edge Type: Displacement/Rotation
*Boundary
_PickedSet4, 2, 2
** Name: BC Left Edge Type: Displacement/Rotation
*Boundary
_PickedSet3, 1, 1
** 
** LOADS
** 
** Name: Traction Top Edge   Type: Surface traction
*Dsload
"Top Surface", TRVEC, 10., 0., 1., 0.
** 
** OUTPUT REQUESTS
** 
*Restart, write, frequency=0
** 
** FIELD OUTPUT: F-Output-1
** 
*Output, field, variable=PRESELECT
** 
** FIELD OUTPUT: FieldOut
** 
*Output, field, frequency=99999
*Node Output
COORD, UT
*Element Output, directions=YES
E, S
** 
** HISTORY OUTPUT: H-Output-1
** 
*Output, history, variable=PRESELECT
*End Step
** ----------------------------------------------------------------
** 
** STEP: Another Step
** 
*Step, name="Another Step", nlgeom=NO
Well, guess
*Static
1., 1., 1e-05, 1.
** 
** OUTPUT REQUESTS
** 
*Restart, write, frequency=0
** 
** FIELD OUTPUT: F-Output-1
** 
*Output, field, variable=PRESELECT
** 
** FIELD OUTPUT: FieldOut
** 
*Output, field, frequency=99999
*Node Output
COORD, UT
*Element Output, directions=YES
E, S
** 
** HISTORY OUTPUT: H-Output-1
** 
*Output, history, variable=PRESELECT
*End Step
